include kalj.lmp
units lj
atom_style atomic

variable dimensions equal 3
variable density equal 1.2
variable fraca equal 0.8

dimension 3
read_restart equil/kalj_T0.55_n360_v300_3000000_1.final.lmprestart.3000000
Reading restart file ...
  restart file = 15 Sep 2022, LAMMPS = 15 Sep 2022
  restoring atom style atomic from restart
  orthogonal box = (0 0 0) to (6.6943295 6.6943295 6.6943295)
  restoring pair style lj/cut from restart
  360 atoms
  read_restart CPU = 0.006 seconds
include kalj_particles.lmp
mass * 1.0 #  set mass 1.0 for all types

pair_style lj/cut 2.5
#pair coeffs type1 type2 eps sigma
pair_coeff 1 1 1.0 1.00 2.5
pair_coeff 1 2 1.5 0.80 2.0
pair_coeff 2 2 0.5 0.88 2.2
pair_modify shift yes
reset_timestep 0

print "Setting up annealing run"
Setting up annealing run
dump 1 all atom 1000000 equil/kalj_T0.5_n360_v300_10000000_1.lammpstrj
#dump_modify 1 sort id scale no

restart 10000000 equil/kalj_T0.5_n360_v300_10000000_1.restart
restart 10000000 equil/kalj_T0.5_n360_v300_10000000_1.final.lmprestart

thermo 100000
timestep 0.003

neighbor 0.5 bin
neigh_modify every 1 delay 25 check yes

velocity all create 0.5 1 dist gaussian
fix 1 all nvt temp 0.5 0.5 0.3
  fix style: nvt, fix ID: 1
run 10000000
Generated 0 of 1 mixed pair_coeff terms from geometric mixing rule
All restart file global fix info was re-assigned
Step          Temp          E_pair         E_mol          TotEng         Press
0   0.5           -6.8346607      0             -6.086744       4.1013606
Averages over the last 51 of 101 rows, steps 5000000 to 10000000:
Temp E_pair E_mol TotEng Press
0.499128 -6.90987 0 -6.16326 3.71946
Loop time of 540.598 on 16 procs for 10000000 steps with 360 atoms
